$DATA1 SOURCE='PrimeSim HSPICE' VERSION='R-2020.12-SP2 linux64' PARAM_COUNT=2
.TITLE '* optimizacion de wp para un inversor'
 index            p1               bestratio        tpdr            
                  tpdf             tpd              diff            
                  temper           alter#          
 3                 1.605e+03          4.4576         1.584e-10      
                   1.596e-10        1.590e-10       -1.190e-12      
                    70.0000        1               
