$DATA1 SOURCE='PrimeSim HSPICE' VERSION='R-2020.12-SP2 linux64' PARAM_COUNT=2
.TITLE '* optimizacion de wp para un inversor'
 index            p1               bestratio        tpdr            
                  tpdf             tpd              diff            
                  temper           alter#          
 2                 990.9788           2.7527         1.668e-10      
                   1.341e-10        1.505e-10        3.273e-11      
                    70.0000        1               
