$DATA1 SOURCE='PrimeSim HSPICE' VERSION='R-2020.12-SP2 linux64' PARAM_COUNT=1
.TITLE '* fo4.sp'
 wp               tpdr             tpdf             tpd             
                  trise            tfall            temper          
                  alter#          
  520.0000         2.313e-10        1.215e-10        1.764e-10      
                   2.299e-10        1.145e-10         70.0000       
                 1               
  525.0000         2.095e-10        1.216e-10        1.656e-10      
                   2.130e-10        1.145e-10         70.0000       
                 1               
  530.0000         2.300e-10        1.217e-10        1.758e-10      
                   2.248e-10        1.143e-10         70.0000       
                 1               
  535.0000         2.071e-10        1.215e-10        1.643e-10      
                   2.092e-10        1.147e-10         70.0000       
                 1               
  540.0000         2.062e-10        1.214e-10        1.638e-10      
                   2.084e-10        1.153e-10         70.0000       
                 1               
  545.0000         2.051e-10        1.213e-10        1.632e-10      
                   2.067e-10        1.158e-10         70.0000       
                 1               
  550.0000         2.041e-10        1.214e-10        1.627e-10      
                   2.052e-10        1.159e-10         70.0000       
                 1               
  555.0000         2.031e-10        1.214e-10        1.623e-10      
                   2.036e-10        1.161e-10         70.0000       
                 1               
  560.0000         2.022e-10        1.215e-10        1.618e-10      
                   2.022e-10        1.162e-10         70.0000       
                 1               
  565.0000         2.053e-10        1.215e-10        1.634e-10      
                   2.161e-10        1.164e-10         70.0000       
                 1               
  570.0000         2.042e-10        1.228e-10        1.635e-10      
                   2.148e-10        1.128e-10         70.0000       
                 1               
  575.0000         2.030e-10        1.230e-10        1.630e-10      
                   2.137e-10        1.128e-10         70.0000       
                 1               
  580.0000         2.020e-10        1.231e-10        1.625e-10      
                   2.125e-10        1.128e-10         70.0000       
                 1               
  585.0000         2.011e-10        1.232e-10        1.621e-10      
                   2.113e-10        1.127e-10         70.0000       
                 1               
  590.0000         2.003e-10        1.233e-10        1.618e-10      
                   2.102e-10        1.127e-10         70.0000       
                 1               
  595.0000         1.995e-10        1.234e-10        1.614e-10      
                   2.091e-10        1.127e-10         70.0000       
                 1               
  600.0000         1.987e-10        1.235e-10        1.611e-10      
                   2.079e-10        1.127e-10         70.0000       
                 1               
  605.0000         1.979e-10        1.236e-10        1.607e-10      
                   2.066e-10        1.127e-10         70.0000       
                 1               
  610.0000         1.972e-10        1.237e-10        1.604e-10      
                   2.056e-10        1.127e-10         70.0000       
                 1               
  615.0000         1.965e-10        1.238e-10        1.601e-10      
                   2.046e-10        1.128e-10         70.0000       
                 1               
  620.0000         1.957e-10        1.239e-10        1.598e-10      
                   2.036e-10        1.128e-10         70.0000       
                 1               
  625.0000         1.952e-10        1.240e-10        1.596e-10      
                   2.025e-10        1.128e-10         70.0000       
                 1               
  630.0000         1.948e-10        1.241e-10        1.595e-10      
                   2.015e-10        1.128e-10         70.0000       
                 1               
  635.0000         1.910e-10        1.242e-10        1.576e-10      
                   1.841e-10        1.129e-10         70.0000       
                 1               
  640.0000         1.904e-10        1.244e-10        1.574e-10      
                   1.831e-10        1.129e-10         70.0000       
                 1               
  645.0000         1.898e-10        1.245e-10        1.571e-10      
                   1.823e-10        1.130e-10         70.0000       
                 1               
  650.0000         1.892e-10        1.246e-10        1.569e-10      
                   1.815e-10        1.131e-10         70.0000       
                 1               
  655.0000         1.886e-10        1.247e-10        1.567e-10      
                   1.806e-10        1.131e-10         70.0000       
                 1               
  660.0000         1.880e-10        1.248e-10        1.564e-10      
                   1.797e-10        1.132e-10         70.0000       
                 1               
  665.0000         1.875e-10        1.250e-10        1.562e-10      
                   1.789e-10        1.133e-10         70.0000       
                 1               
  670.0000         1.869e-10        1.251e-10        1.560e-10      
                   1.780e-10        1.134e-10         70.0000       
                 1               
  675.0000         1.864e-10        1.252e-10        1.558e-10      
                   1.771e-10        1.135e-10         70.0000       
                 1               
  680.0000         1.859e-10        1.254e-10        1.556e-10      
                   1.763e-10        1.136e-10         70.0000       
                 1               
  685.0000         1.854e-10        1.255e-10        1.555e-10      
                   1.755e-10        1.137e-10         70.0000       
                 1               
  690.0000         1.996e-10        1.256e-10        1.626e-10      
                   1.992e-10        1.138e-10         70.0000       
                 1               
  695.0000         1.843e-10        1.258e-10        1.550e-10      
                   1.734e-10        1.140e-10         70.0000       
                 1               
  700.0000         1.839e-10        1.259e-10        1.549e-10      
                   1.730e-10        1.141e-10         70.0000       
                 1               
  705.0000         1.845e-10        1.260e-10        1.553e-10      
                   1.721e-10        1.143e-10         70.0000       
                 1               
  710.0000         1.704e-10        1.262e-10        1.483e-10      
                   2.400e-10        1.145e-10         70.0000       
                 1               
  715.0000         1.802e-10        1.263e-10        1.532e-10      
                   1.983e-10        1.146e-10         70.0000       
                 1               
  720.0000         1.849e-10        1.264e-10        1.557e-10      
                   1.884e-10        1.148e-10         70.0000       
                 1               
  725.0000         1.816e-10        1.266e-10        1.541e-10      
                   1.690e-10        1.150e-10         70.0000       
                 1               
  730.0000         1.830e-10        1.267e-10        1.549e-10      
                   1.943e-10        1.152e-10         70.0000       
                 1               
  735.0000         1.833e-10        1.268e-10        1.551e-10      
                   1.928e-10        1.154e-10         70.0000       
                 1               
  740.0000         1.830e-10        1.270e-10        1.550e-10      
                   1.919e-10        1.155e-10         70.0000       
                 1               
  745.0000         1.816e-10        1.271e-10        1.543e-10      
                   1.927e-10        1.157e-10         70.0000       
                 1               
  750.0000         1.901e-10        1.273e-10        1.587e-10      
                   1.780e-10        1.159e-10         70.0000       
                 1               
  755.0000         1.809e-10        1.274e-10        1.542e-10      
                   1.913e-10        1.160e-10         70.0000       
                 1               
  760.0000         1.788e-10        1.281e-10        1.535e-10      
                   1.647e-10        1.241e-10         70.0000       
                 1               
  765.0000         1.813e-10        1.284e-10        1.548e-10      
                   1.825e-10        1.245e-10         70.0000       
                 1               
  770.0000         1.810e-10        1.285e-10        1.548e-10      
                   1.820e-10        1.251e-10         70.0000       
                 1               
  775.0000         1.777e-10        1.286e-10        1.532e-10      
                   1.630e-10        1.256e-10         70.0000       
                 1               
  780.0000         1.917e-10        1.286e-10        1.601e-10      
                   1.958e-10        1.258e-10         70.0000       
                 1               
  785.0000         1.824e-10        1.282e-10        1.553e-10      
                   1.916e-10        1.259e-10         70.0000       
                 1               
  790.0000         1.788e-10        1.279e-10        1.534e-10      
                   1.794e-10        1.259e-10         70.0000       
                 1               
  795.0000         1.785e-10        1.276e-10        1.531e-10      
                   1.789e-10        1.257e-10         70.0000       
                 1               
  800.0000         1.782e-10        1.274e-10        1.528e-10      
                   1.784e-10        1.255e-10         70.0000       
                 1               
  805.0000         1.778e-10        1.271e-10        1.524e-10      
                   1.780e-10        1.255e-10         70.0000       
                 1               
  810.0000         1.753e-10        1.269e-10        1.511e-10      
                   1.595e-10        1.253e-10         70.0000       
                 1               
  815.0000         1.750e-10        1.268e-10        1.509e-10      
                   1.589e-10        1.271e-10         70.0000       
                 1               
  820.0000         1.747e-10        1.270e-10        1.508e-10      
                   1.584e-10        1.264e-10         70.0000       
                 1               
  825.0000         1.744e-10        1.272e-10        1.508e-10      
                   1.580e-10        1.258e-10         70.0000       
                 1               
  830.0000         1.741e-10        1.273e-10        1.507e-10      
                   1.576e-10        1.251e-10         70.0000       
                 1               
  835.0000         1.780e-10        1.275e-10        1.528e-10      
                   1.578e-10        1.244e-10         70.0000       
                 1               
  840.0000         1.758e-10        1.278e-10        1.518e-10      
                   1.743e-10        1.236e-10         70.0000       
                 1               
  845.0000         1.733e-10        1.280e-10        1.506e-10      
                   1.564e-10        1.229e-10         70.0000       
                 1               
  850.0000         1.710e-10        1.282e-10        1.496e-10      
                   1.848e-10        1.231e-10         70.0000       
                 1               
  855.0000         1.727e-10        1.284e-10        1.506e-10      
                   1.553e-10        1.232e-10         70.0000       
                 1               
  860.0000         1.724e-10        1.287e-10        1.505e-10      
                   1.548e-10        1.233e-10         70.0000       
                 1               
  865.0000         1.722e-10        1.289e-10        1.505e-10      
                   1.544e-10        1.234e-10         70.0000       
                 1               
  870.0000         1.719e-10        1.291e-10        1.505e-10      
                   1.540e-10        1.238e-10         70.0000       
                 1               
  875.0000         1.732e-10        1.294e-10        1.513e-10      
                   1.854e-10        1.242e-10         70.0000       
                 1               
  880.0000         1.715e-10        1.296e-10        1.505e-10      
                   1.534e-10        1.246e-10         70.0000       
                 1               
  885.0000         1.738e-10        1.298e-10        1.518e-10      
                   1.875e-10        1.250e-10         70.0000       
                 1               
  890.0000         1.710e-10        1.301e-10        1.505e-10      
                   1.526e-10        1.254e-10         70.0000       
                 1               
  895.0000         1.738e-10        1.303e-10        1.521e-10      
                   1.812e-10        1.258e-10         70.0000       
                 1               
  900.0000         1.824e-10        1.305e-10        1.565e-10      
                   1.861e-10        1.261e-10         70.0000       
                 1               
  905.0000         1.698e-10        1.307e-10        1.503e-10      
                   1.520e-10        1.264e-10         70.0000       
                 1               
  910.0000         1.700e-10        1.309e-10        1.505e-10      
                   1.511e-10        1.266e-10         70.0000       
                 1               
  915.0000         1.698e-10        1.311e-10        1.505e-10      
                   1.507e-10        1.268e-10         70.0000       
                 1               
  920.0000         1.696e-10        1.313e-10        1.504e-10      
                   1.503e-10        1.270e-10         70.0000       
                 1               
  925.0000         1.693e-10        1.315e-10        1.504e-10      
                   1.499e-10        1.273e-10         70.0000       
                 1               
  930.0000         1.691e-10        1.317e-10        1.504e-10      
                   1.496e-10        1.275e-10         70.0000       
                 1               
  935.0000         1.731e-10        1.319e-10        1.525e-10      
                   1.585e-10        1.277e-10         70.0000       
                 1               
  940.0000         1.687e-10        1.321e-10        1.504e-10      
                   1.489e-10        1.279e-10         70.0000       
                 1               
  945.0000         1.685e-10        1.323e-10        1.504e-10      
                   1.486e-10        1.281e-10         70.0000       
                 1               
  950.0000         1.683e-10        1.325e-10        1.504e-10      
                   1.483e-10        1.283e-10         70.0000       
                 1               
  955.0000         1.681e-10        1.327e-10        1.504e-10      
                   1.479e-10        1.285e-10         70.0000       
                 1               
  960.0000         1.680e-10        1.329e-10        1.504e-10      
                   1.476e-10        1.287e-10         70.0000       
                 1               
  965.0000         1.737e-10        1.331e-10        1.534e-10      
                   1.806e-10        1.289e-10         70.0000       
                 1               
  970.0000         1.702e-10        1.333e-10        1.518e-10      
                   1.753e-10        1.291e-10         70.0000       
                 1               
  975.0000         1.674e-10        1.335e-10        1.504e-10      
                   1.467e-10        1.293e-10         70.0000       
                 1               
  980.0000         1.672e-10        1.337e-10        1.504e-10      
                   1.464e-10        1.295e-10         70.0000       
                 1               
  985.0000         1.670e-10        1.339e-10        1.504e-10      
                   1.461e-10        1.297e-10         70.0000       
                 1               
  990.0000         1.669e-10        1.341e-10        1.505e-10      
                   1.458e-10        1.299e-10         70.0000       
                 1               
  995.0000         1.667e-10        1.343e-10        1.505e-10      
                   1.455e-10        1.301e-10         70.0000       
                 1               
  1.000e+03        1.665e-10        1.344e-10        1.505e-10      
                   1.452e-10        1.303e-10         70.0000       
                 1               
  1.005e+03        1.664e-10        1.346e-10        1.505e-10      
                   1.449e-10        1.305e-10         70.0000       
                 1               
  1.010e+03        1.464e-10        1.348e-10        1.406e-10      
                   2.336e-10        1.307e-10         70.0000       
                 1               
  1.015e+03        1.684e-10        1.350e-10        1.517e-10      
                   1.458e-10        1.309e-10         70.0000       
                 1               
  1.020e+03        1.688e-10        1.352e-10        1.520e-10      
                   1.742e-10        1.311e-10         70.0000       
                 1               
  1.025e+03        1.681e-10        1.354e-10        1.517e-10      
                   1.714e-10        1.313e-10         70.0000       
                 1               
  1.030e+03        1.674e-10        1.356e-10        1.515e-10      
                   1.710e-10        1.315e-10         70.0000       
                 1               
  1.035e+03        1.666e-10        1.358e-10        1.512e-10      
                   1.701e-10        1.317e-10         70.0000       
                 1               
  1.040e+03        1.660e-10        1.360e-10        1.510e-10      
                   1.689e-10        1.319e-10         70.0000       
                 1               
  1.045e+03        1.655e-10        1.362e-10        1.509e-10      
                   1.712e-10        1.321e-10         70.0000       
                 1               
  1.050e+03        1.650e-10        1.364e-10        1.507e-10      
                   1.716e-10        1.323e-10         70.0000       
                 1               
  1.055e+03        1.712e-10        1.366e-10        1.539e-10      
                   1.542e-10        1.326e-10         70.0000       
                 1               
  1.060e+03        1.650e-10        1.368e-10        1.509e-10      
                   1.708e-10        1.328e-10         70.0000       
                 1               
  1.065e+03        1.709e-10        1.370e-10        1.540e-10      
                   1.507e-10        1.330e-10         70.0000       
                 1               
  1.070e+03        1.707e-10        1.372e-10        1.539e-10      
                   1.512e-10        1.332e-10         70.0000       
                 1               
  1.075e+03        1.732e-10        1.374e-10        1.553e-10      
                   1.577e-10        1.334e-10         70.0000       
                 1               
  1.080e+03        1.667e-10        1.376e-10        1.521e-10      
                   1.432e-10        1.337e-10         70.0000       
                 1               
  1.085e+03        1.644e-10        1.378e-10        1.511e-10      
                   1.440e-10        1.339e-10         70.0000       
                 1               
  1.090e+03        1.673e-10        1.380e-10        1.526e-10      
                   1.435e-10        1.341e-10         70.0000       
                 1               
  1.095e+03        1.664e-10        1.382e-10        1.523e-10      
                   1.427e-10        1.343e-10         70.0000       
                 1               
  1.100e+03        1.657e-10        1.384e-10        1.520e-10      
                   1.422e-10        1.346e-10         70.0000       
                 1               
  1.105e+03        1.515e-10        1.386e-10        1.451e-10      
                   2.061e-10        1.348e-10         70.0000       
                 1               
  1.110e+03        1.709e-10        1.388e-10        1.548e-10      
                   1.658e-10        1.350e-10         70.0000       
                 1               
  1.115e+03        1.618e-10        1.390e-10        1.504e-10      
                   1.798e-10        1.353e-10         70.0000       
                 1               
  1.120e+03        1.654e-10        1.392e-10        1.523e-10      
                   1.416e-10        1.355e-10         70.0000       
                 1               
  1.125e+03        1.662e-10        1.394e-10        1.528e-10      
                   1.414e-10        1.357e-10         70.0000       
                 1               
  1.130e+03        1.634e-10        1.396e-10        1.515e-10      
                   1.418e-10        1.360e-10         70.0000       
                 1               
  1.135e+03        1.631e-10        1.398e-10        1.514e-10      
                   1.399e-10        1.362e-10         70.0000       
                 1               
  1.140e+03        1.631e-10        1.400e-10        1.515e-10      
                   1.393e-10        1.364e-10         70.0000       
                 1               
  1.145e+03        1.652e-10        1.402e-10        1.527e-10      
                   1.742e-10        1.367e-10         70.0000       
                 1               
  1.150e+03        1.657e-10        1.403e-10        1.530e-10      
                   1.456e-10        1.369e-10         70.0000       
                 1               
  1.155e+03        1.626e-10        1.405e-10        1.516e-10      
                   1.378e-10        1.372e-10         70.0000       
                 1               
  1.160e+03        1.626e-10        1.407e-10        1.517e-10      
                   1.377e-10        1.374e-10         70.0000       
                 1               
  1.165e+03        1.626e-10        1.409e-10        1.518e-10      
                   1.379e-10        1.376e-10         70.0000       
                 1               
  1.170e+03        1.624e-10        1.412e-10        1.518e-10      
                   1.375e-10        1.378e-10         70.0000       
                 1               
  1.175e+03        1.622e-10        1.415e-10        1.518e-10      
                   1.389e-10        1.380e-10         70.0000       
                 1               
  1.180e+03        1.670e-10        1.418e-10        1.544e-10      
                   1.499e-10        1.382e-10         70.0000       
                 1               
  1.185e+03        1.651e-10        1.422e-10        1.536e-10      
                   1.726e-10        1.384e-10         70.0000       
                 1               
  1.190e+03        1.615e-10        1.428e-10        1.522e-10      
                   1.392e-10        1.386e-10         70.0000       
                 1               
  1.195e+03        1.620e-10        1.435e-10        1.528e-10      
                   1.384e-10        1.393e-10         70.0000       
                 1               
  1.200e+03        1.621e-10        1.441e-10        1.531e-10      
                   1.384e-10        1.366e-10         70.0000       
                 1               
  1.205e+03        1.618e-10        1.447e-10        1.533e-10      
                   1.367e-10        1.372e-10         70.0000       
                 1               
  1.210e+03        1.618e-10        1.453e-10        1.535e-10      
                   1.368e-10        1.377e-10         70.0000       
                 1               
  1.215e+03        1.635e-10        1.458e-10        1.546e-10      
                   1.649e-10        1.380e-10         70.0000       
                 1               
  1.220e+03        1.612e-10        1.462e-10        1.537e-10      
                   1.381e-10        1.383e-10         70.0000       
                 1               
  1.225e+03        1.643e-10        1.465e-10        1.554e-10      
                   1.429e-10        1.386e-10         70.0000       
                 1               
  1.230e+03        1.612e-10        1.468e-10        1.540e-10      
                   1.375e-10        1.388e-10         70.0000       
                 1               
  1.235e+03        1.615e-10        1.470e-10        1.542e-10      
                   1.368e-10        1.391e-10         70.0000       
                 1               
  1.240e+03        1.631e-10        1.471e-10        1.551e-10      
                   1.642e-10        1.389e-10         70.0000       
                 1               
  1.245e+03        1.631e-10        1.469e-10        1.550e-10      
                   1.371e-10        1.382e-10         70.0000       
                 1               
  1.250e+03        1.614e-10        1.467e-10        1.541e-10      
                   1.370e-10        1.373e-10         70.0000       
                 1               
  1.255e+03        1.634e-10        1.466e-10        1.550e-10      
                   1.660e-10        1.384e-10         70.0000       
                 1               
  1.260e+03        1.612e-10        1.463e-10        1.538e-10      
                   1.364e-10        1.391e-10         70.0000       
                 1               
  1.265e+03        1.610e-10        1.461e-10        1.535e-10      
                   1.354e-10        1.390e-10         70.0000       
                 1               
  1.270e+03        1.611e-10        1.460e-10        1.535e-10      
                   1.361e-10        1.394e-10         70.0000       
                 1               
  1.275e+03        1.611e-10        1.462e-10        1.536e-10      
                   1.363e-10        1.402e-10         70.0000       
                 1               
  1.280e+03        1.610e-10        1.464e-10        1.537e-10      
                   1.362e-10        1.407e-10         70.0000       
                 1               
  1.285e+03        1.607e-10        1.467e-10        1.537e-10      
                   1.350e-10        1.408e-10         70.0000       
                 1               
  1.290e+03        1.607e-10        1.469e-10        1.538e-10      
                   1.349e-10        1.411e-10         70.0000       
                 1               
  1.295e+03        1.626e-10        1.471e-10        1.549e-10      
                   1.632e-10        1.416e-10         70.0000       
                 1               
  1.300e+03        1.624e-10        1.474e-10        1.549e-10      
                   1.626e-10        1.418e-10         70.0000       
                 1               
  1.305e+03        1.623e-10        1.477e-10        1.550e-10      
                   1.625e-10        1.419e-10         70.0000       
                 1               
  1.310e+03        1.622e-10        1.479e-10        1.551e-10      
                   1.627e-10        1.419e-10         70.0000       
                 1               
  1.315e+03        1.605e-10        1.483e-10        1.544e-10      
                   1.350e-10        1.412e-10         70.0000       
                 1               
  1.320e+03        1.604e-10        1.486e-10        1.545e-10      
                   1.350e-10        1.417e-10         70.0000       
                 1               
  1.325e+03        1.627e-10        1.489e-10        1.558e-10      
                   1.413e-10        1.419e-10         70.0000       
                 1               
  1.330e+03        1.602e-10        1.492e-10        1.547e-10      
                   1.341e-10        1.414e-10         70.0000       
                 1               
  1.335e+03        1.603e-10        1.495e-10        1.549e-10      
                   1.347e-10        1.416e-10         70.0000       
                 1               
  1.340e+03        1.601e-10        1.497e-10        1.549e-10      
                   1.349e-10        1.415e-10         70.0000       
                 1               
  1.345e+03        1.618e-10        1.500e-10        1.559e-10      
                   1.609e-10        1.417e-10         70.0000       
                 1               
  1.350e+03        1.601e-10        1.502e-10        1.552e-10      
                   1.340e-10        1.411e-10         70.0000       
                 1               
  1.355e+03        1.601e-10        1.505e-10        1.553e-10      
                   1.342e-10        1.412e-10         70.0000       
                 1               
  1.360e+03        1.601e-10        1.507e-10        1.554e-10      
                   1.340e-10        1.417e-10         70.0000       
                 1               
  1.365e+03        1.601e-10        1.509e-10        1.555e-10      
                   1.338e-10        1.420e-10         70.0000       
                 1               
  1.370e+03        1.600e-10        1.511e-10        1.556e-10      
                   1.337e-10        1.423e-10         70.0000       
                 1               
  1.375e+03        1.600e-10        1.514e-10        1.557e-10      
                   1.336e-10        1.425e-10         70.0000       
                 1               
  1.380e+03        1.599e-10        1.516e-10        1.557e-10      
                   1.334e-10        1.429e-10         70.0000       
                 1               
  1.385e+03        1.599e-10        1.517e-10        1.558e-10      
                   1.332e-10        1.433e-10         70.0000       
                 1               
  1.390e+03        1.598e-10        1.519e-10        1.558e-10      
                   1.336e-10        1.437e-10         70.0000       
                 1               
  1.395e+03        1.598e-10        1.521e-10        1.559e-10      
                   1.337e-10        1.441e-10         70.0000       
                 1               
  1.400e+03        1.598e-10        1.523e-10        1.560e-10      
                   1.331e-10        1.444e-10         70.0000       
                 1               
  1.405e+03        1.596e-10        1.525e-10        1.560e-10      
                   1.329e-10        1.446e-10         70.0000       
                 1               
  1.410e+03        1.612e-10        1.526e-10        1.569e-10      
                   1.605e-10        1.448e-10         70.0000       
                 1               
  1.415e+03        1.605e-10        1.528e-10        1.566e-10      
                   1.596e-10        1.450e-10         70.0000       
                 1               
  1.420e+03        1.597e-10        1.530e-10        1.563e-10      
                   1.327e-10        1.452e-10         70.0000       
                 1               
  1.425e+03        1.595e-10        1.531e-10        1.563e-10      
                   1.334e-10        1.452e-10         70.0000       
                 1               
  1.430e+03        1.602e-10        1.533e-10        1.568e-10      
                   1.562e-10        1.452e-10         70.0000       
                 1               
  1.435e+03        1.602e-10        1.534e-10        1.568e-10      
                   1.583e-10        1.453e-10         70.0000       
                 1               
  1.440e+03        1.605e-10        1.536e-10        1.570e-10      
                   1.599e-10        1.455e-10         70.0000       
                 1               
  1.445e+03        1.609e-10        1.538e-10        1.573e-10      
                   1.596e-10        1.460e-10         70.0000       
                 1               
  1.450e+03        1.591e-10        1.539e-10        1.565e-10      
                   1.325e-10        1.464e-10         70.0000       
                 1               
  1.455e+03        1.592e-10        1.541e-10        1.566e-10      
                   1.323e-10        1.468e-10         70.0000       
                 1               
  1.460e+03        1.592e-10        1.543e-10        1.567e-10      
                   1.322e-10        1.472e-10         70.0000       
                 1               
  1.465e+03        1.592e-10        1.544e-10        1.568e-10      
                   1.321e-10        1.476e-10         70.0000       
                 1               
  1.470e+03        1.591e-10        1.546e-10        1.569e-10      
                   1.320e-10        1.479e-10         70.0000       
                 1               
  1.475e+03        1.591e-10        1.548e-10        1.569e-10      
                   1.320e-10        1.482e-10         70.0000       
                 1               
  1.480e+03        1.591e-10        1.549e-10        1.570e-10      
                   1.319e-10        1.486e-10         70.0000       
                 1               
  1.485e+03        1.590e-10        1.551e-10        1.571e-10      
                   1.319e-10        1.489e-10         70.0000       
                 1               
  1.490e+03        1.590e-10        1.553e-10        1.571e-10      
                   1.318e-10        1.492e-10         70.0000       
                 1               
  1.495e+03        1.590e-10        1.554e-10        1.572e-10      
                   1.318e-10        1.495e-10         70.0000       
                 1               
  1.500e+03        1.589e-10        1.556e-10        1.573e-10      
                   1.317e-10        1.498e-10         70.0000       
                 1               
  1.505e+03        1.589e-10        1.558e-10        1.573e-10      
                   1.317e-10        1.500e-10         70.0000       
                 1               
  1.510e+03        1.589e-10        1.560e-10        1.574e-10      
                   1.317e-10        1.503e-10         70.0000       
                 1               
  1.515e+03        1.588e-10        1.561e-10        1.575e-10      
                   1.316e-10        1.506e-10         70.0000       
                 1               
  1.520e+03        1.588e-10        1.563e-10        1.576e-10      
                   1.316e-10        1.509e-10         70.0000       
                 1               
  1.525e+03        1.588e-10        1.565e-10        1.576e-10      
                   1.316e-10        1.512e-10         70.0000       
                 1               
  1.530e+03        1.587e-10        1.567e-10        1.577e-10      
                   1.315e-10        1.515e-10         70.0000       
                 1               
  1.535e+03        1.587e-10        1.569e-10        1.578e-10      
                   1.315e-10        1.517e-10         70.0000       
                 1               
  1.540e+03        1.587e-10        1.571e-10        1.579e-10      
                   1.314e-10        1.520e-10         70.0000       
                 1               
  1.545e+03        1.587e-10        1.572e-10        1.579e-10      
                   1.314e-10        1.523e-10         70.0000       
                 1               
  1.550e+03        1.586e-10        1.574e-10        1.580e-10      
                   1.314e-10        1.526e-10         70.0000       
                 1               
  1.555e+03        1.586e-10        1.576e-10        1.581e-10      
                   1.313e-10        1.528e-10         70.0000       
                 1               
  1.560e+03        1.586e-10        1.578e-10        1.582e-10      
                   1.313e-10        1.531e-10         70.0000       
                 1               
  1.565e+03        1.585e-10        1.580e-10        1.583e-10      
                   1.313e-10        1.534e-10         70.0000       
                 1               
  1.570e+03        1.585e-10        1.582e-10        1.584e-10      
                   1.312e-10        1.537e-10         70.0000       
                 1               
  1.575e+03        1.585e-10        1.584e-10        1.584e-10      
                   1.312e-10        1.539e-10         70.0000       
                 1               
  1.580e+03        1.585e-10        1.586e-10        1.585e-10      
                   1.312e-10        1.542e-10         70.0000       
                 1               
  1.585e+03        1.585e-10        1.588e-10        1.586e-10      
                   1.311e-10        1.545e-10         70.0000       
                 1               
  1.590e+03        1.584e-10        1.590e-10        1.587e-10      
                   1.311e-10        1.548e-10         70.0000       
                 1               
  1.595e+03        1.584e-10        1.592e-10        1.588e-10      
                   1.311e-10        1.550e-10         70.0000       
                 1               
  1.600e+03        1.584e-10        1.594e-10        1.589e-10      
                   1.310e-10        1.553e-10         70.0000       
                 1               
